<?xml version="1.0" encoding="ISO-8859-1"?>
<febio_spec version="2.5">
	<Module type="solid"/>
	<Control>
		<time_steps>10</time_steps>
		<step_size>0.1</step_size>
		<max_refs>15</max_refs>
		<max_ups>10</max_ups>
		<diverge_reform>1</diverge_reform>
		<reform_each_time_step>1</reform_each_time_step>
		<dtol>0.001</dtol>
		<etol>0.01</etol>
		<rtol>0</rtol>
		<lstol>0.9</lstol>
		<min_residual>1e-20</min_residual>
		<qnmethod>0</qnmethod>
		<time_stepper>
			<dtmin>0.01</dtmin>
			<dtmax>0.1</dtmax>
			<max_retries>5</max_retries>
			<opt_iter>10</opt_iter>
		</time_stepper>
		<analysis type="static"/>
	</Control>
	<Globals>
		<Constants>
			<T>0</T>
			<R>0</R>
			<Fc>0</Fc>
		</Constants>
	</Globals>
	<Material>
		<material id="1" name="NeoHookean" type="neo-HookeanMCLS">
			<density>0</density>
			<E>500</E>
			<v>0.3</v>
		</material>
	</Material>
	<Geometry>
		<Nodes name="Object01">
			<node id="1">0,0,1</node>
			<node id="2">0,0,2</node>
			<node id="3">0,1.6,1</node>
			<node id="4">0,1.6,2</node>
			<node id="5">0,3.2,1</node>
			<node id="6">0,3.2,2</node>
			<node id="7">0,4.8,1</node>
			<node id="8">0,4.8,2</node>
			<node id="9">0,6.4,1</node>
			<node id="10">0,6.4,2</node>
			<node id="11">0,8,1</node>
			<node id="12">0,8,2</node>
			<node id="13">0,9.6,1</node>
			<node id="14">0,9.6,2</node>
			<node id="15">0,11.2,1</node>
			<node id="16">0,11.2,2</node>
			<node id="17">0,12.8,1</node>
			<node id="18">0,12.8,2</node>
			<node id="19">0,14.4,1</node>
			<node id="20">0,14.4,2</node>
<!-- ... 662 like lines cut -->
		</Nodes>
		<Elements type="hex8" mat="1" name="Part2">
			<elem id="1">     1,    23,    25,     3,     2,    24,    26,     4</elem>
			<elem id="2">     3,    25,    27,     5,     4,    26,    28,     6</elem>
			<elem id="3">     5,    27,    29,     7,     6,    28,    30,     8</elem>
			<elem id="4">     7,    29,    31,     9,     8,    30,    32,    10</elem>
			<elem id="5">     9,    31,    33,    11,    10,    32,    34,    12</elem>
			<elem id="6">    11,    33,    35,    13,    12,    34,    36,    14</elem>
			<elem id="7">    13,    35,    37,    15,    14,    36,    38,    16</elem>
			<elem id="8">    15,    37,    39,    17,    16,    38,    40,    18</elem>
			<elem id="9">    17,    39,    41,    19,    18,    40,    42,    20</elem>
			<elem id="10">    19,    41,    43,    21,    20,    42,    44,    22</elem>
			<elem id="11">    23,    45,    47,    25,    24,    46,    48,    26</elem>
			<elem id="12">    25,    47,    49,    27,    26,    48,    50,    28</elem>
			<elem id="13">    27,    49,    51,    29,    28,    50,    52,    30</elem>
			<elem id="14">    29,    51,    53,    31,    30,    52,    54,    32</elem>
			<elem id="15">    31,    53,    55,    33,    32,    54,    56,    34</elem>
			<elem id="16">    33,    55,    57,    35,    34,    56,    58,    36</elem>
			<elem id="17">    35,    57,    59,    37,    36,    58,    60,    38</elem>
			<elem id="18">    37,    59,    61,    39,    38,    60,    62,    40</elem>
			<elem id="19">    39,    61,    63,    41,    40,    62,    64,    42</elem>
			<elem id="20">    41,    63,    65,    43,    42,    64,    66,    44</elem>
<!-- ... 280 like lines cut -->
		</Elements>
		<NodeSet name="FixedNodes">
			<node id="1"/>
			<node id="2"/>
			<node id="3"/>
			<node id="4"/>
			<node id="5"/>
			<node id="6"/>
			<node id="7"/>
			<node id="8"/>
			<node id="9"/>
			<node id="10"/>
			<node id="11"/>
			<node id="12"/>
			<node id="13"/>
			<node id="14"/>
			<node id="15"/>
			<node id="16"/>
			<node id="17"/>
			<node id="18"/>
			<node id="19"/>
			<node id="20"/>
			<node id="21"/>
			<node id="22"/>
		</NodeSet>
		<NodeSet name="Tz">
			<node id="1"/>
			<node id="2"/>
			<node id="3"/>
			<node id="4"/>
			<node id="5"/>
			<node id="6"/>
			<node id="7"/>
			<node id="8"/>
			<node id="9"/>
			<node id="10"/>
			<node id="11"/>
			<node id="12"/>
			<node id="13"/>
			<node id="14"/>
			<node id="15"/>
			<node id="16"/>
			<node id="17"/>
			<node id="18"/>
			<node id="19"/>
			<node id="20"/>
<!-- ... 662 like lines cut -->
		</NodeSet>
		<NodeSet name="LoadedNodes">
			<node id="681"/>
			<node id="682"/>
		</NodeSet>
	</Geometry>
	<Boundary>
		<fix bc="x,y,z" node_set="FixedNodes"/>
		<fix bc="z" node_set="Tz"/>
	</Boundary>
	<Loads>
		<nodal_load bc="y" node_set="LoadedNodes">
			<scale lc="1">-50.</scale>
		</nodal_load>
	</Loads>
	<LoadData>
		<loadcurve id="1" type="smooth">
			<point>0,0</point>
			<point>1,1</point>
		</loadcurve>
	</LoadData>
	<Output>
		<plotfile type="febio">
			<var type="displacement"/>
			<var type="stress"/>
		</plotfile>
		<logfile>
			<node_data file="NodePositions.txt" data="x;y;z" format='node id="%i">%g,%g,%g</node>'></node_data>
		</logfile>
	</Output>
</febio_spec>
