<?xml version="1.0" encoding="ISO-8859-1"?>
<febio_spec version="2.5">
	<Module type="solid"/>
	<Globals>
		<Constants>
			<T>0</T>
			<R>0</R>
			<Fc>0</Fc>
		</Constants>
	</Globals>
	<Material>
		<material id="1" name="NeoHookeanCompressible" type="neo-Hookean">
			<density>0</density>
			<E>60</E>
			<v>0.4</v>
		</material>
	</Material>
	<Geometry>
		<Nodes name="Object01">
			<node id="1"> -5.0000000e-01,  0.0000000e+00, -5.0000000e-01</node>
			<node id="2"> -5.0000000e-01,  0.0000000e+00,  5.0000000e-01</node>
			<node id="3"> -5.0000000e-01,  2.5000000e+00, -5.0000000e-01</node>
			<node id="4"> -5.0000000e-01,  2.5000000e+00,  5.0000000e-01</node>
			<node id="5"> -5.0000000e-01,  5.0000000e+00, -5.0000000e-01</node>
			<node id="6"> -5.0000000e-01,  5.0000000e+00,  5.0000000e-01</node>
			<node id="7"> -5.0000000e-01,  7.5000000e+00, -5.0000000e-01</node>
			<node id="8"> -5.0000000e-01,  7.5000000e+00,  5.0000000e-01</node>
			<node id="9"> -5.0000000e-01,  1.0000000e+01, -5.0000000e-01</node>
			<node id="10"> -5.0000000e-01,  1.0000000e+01,  5.0000000e-01</node>
			<node id="11">  0.0000000e+00,  0.0000000e+00, -5.0000000e-01</node>
			<node id="12">  0.0000000e+00,  0.0000000e+00,  5.0000000e-01</node>
			<node id="13">  0.0000000e+00,  2.5000000e+00, -5.0000000e-01</node>
			<node id="14">  0.0000000e+00,  2.5000000e+00,  5.0000000e-01</node>
			<node id="15">  0.0000000e+00,  5.0000000e+00, -5.0000000e-01</node>
			<node id="16">  0.0000000e+00,  5.0000000e+00,  5.0000000e-01</node>
			<node id="17">  0.0000000e+00,  7.5000000e+00, -5.0000000e-01</node>
			<node id="18">  0.0000000e+00,  7.5000000e+00,  5.0000000e-01</node>
			<node id="19">  0.0000000e+00,  1.0000000e+01, -5.0000000e-01</node>
			<node id="20">  0.0000000e+00,  1.0000000e+01,  5.0000000e-01</node>
<!-- ... 10 like lines cut -->
		</Nodes>
		<Elements type="hex8" mat="1" name="Part1">
			<elem id="1">     1,    11,    13,     3,     2,    12,    14,     4</elem>
			<elem id="2">     3,    13,    15,     5,     4,    14,    16,     6</elem>
			<elem id="3">     5,    15,    17,     7,     6,    16,    18,     8</elem>
			<elem id="4">     7,    17,    19,     9,     8,    18,    20,    10</elem>
			<elem id="5">    11,    21,    23,    13,    12,    22,    24,    14</elem>
			<elem id="6">    13,    23,    25,    15,    14,    24,    26,    16</elem>
			<elem id="7">    15,    25,    27,    17,    16,    26,    28,    18</elem>
			<elem id="8">    17,    27,    29,    19,    18,    28,    30,    20</elem>
		</Elements>
		<NodeSet name="EndNodes">
			<node id="1"/>
			<node id="2"/>
			<node id="11"/>
			<node id="12"/>
			<node id="21"/>
			<node id="22"/>
		</NodeSet>
		<NodeSet name="Tz">
			<node id="1"/>
			<node id="2"/>
			<node id="3"/>
			<node id="4"/>
			<node id="5"/>
			<node id="6"/>
			<node id="7"/>
			<node id="8"/>
			<node id="9"/>
			<node id="10"/>
			<node id="11"/>
			<node id="12"/>
			<node id="13"/>
			<node id="14"/>
			<node id="15"/>
			<node id="16"/>
			<node id="17"/>
			<node id="18"/>
			<node id="19"/>
			<node id="20"/>
<!-- ... 10 like lines cut -->
		</NodeSet>
		<NodeSet name="LoadedNodes">
			<node id="9"/>
			<node id="10"/>
		</NodeSet>
	</Geometry>
	<Boundary>
		<fix bc="x,y,z" node_set="EndNodes"/>
		<fix bc="z" node_set="Tz"/>
	</Boundary>
	<LoadData>
		<loadcurve id="1" type="smooth">
			<point>0,0</point>
			<point>1,1</point>
		</loadcurve>
	</LoadData>
	<Output>
		<plotfile type="febio">
			<var type="displacement"/>
			<var type="reaction forces"/>
			<var type="stress"/>
		</plotfile>
		<logfile>
			<node_data file="NodePositions.txt" data="x;y;z" format='node id="%i">%g,%g,%g/node>'></node_data>
		</logfile>
	</Output>
	<Step name="Load">
		<Control>
			<time_steps>10</time_steps>
			<step_size>0.1</step_size>
			<max_refs>15</max_refs>
			<max_ups>10</max_ups>
			<diverge_reform>1</diverge_reform>
			<reform_each_time_step>1</reform_each_time_step>
			<dtol>0.001</dtol>
			<etol>0.01</etol>
			<rtol>0</rtol>
			<lstol>0.9</lstol>
			<min_residual>1e-20</min_residual>
			<qnmethod>0</qnmethod>
			<time_stepper>
				<dtmin>0.01</dtmin>
				<dtmax>0.1</dtmax>
				<max_retries>5</max_retries>
				<opt_iter>10</opt_iter>
			</time_stepper>
			<analysis type="static"/>
		</Control>
		<Loads>
			<nodal_load bc="x" node_set="LoadedNodes">
				<scale lc="1">0.005</scale>
			</nodal_load>
		</Loads>
	</Step>
</febio_spec>
