<?xml version="1.0" encoding="ISO-8859-1"?>
<febio_spec version="2.5">
	<Module type="solid"/>
	<Globals>
		<Constants>
			<T>0</T>
			<R>0</R>
			<Fc>0</Fc>
		</Constants>
	</Globals>
	<Material>
		<material id="1" name="NeoHookeanCompressible" type="neo-HookeanMCLS">
			<density>0</density>
			<E>500</E>
			<v>0.3</v>
		</material>
	</Material>
	<Geometry>
		<Nodes name="Object01">
			<node id="1"> -1.0000000e+00,  4.0000000e+00, -5.0000000e-01</node>
			<node id="2"> -1.0000000e+00,  4.0000000e+00,  1.5000000e+00</node>
			<node id="3"> -1.0000000e+00,  6.0000000e+00, -5.0000000e-01</node>
			<node id="4"> -1.0000000e+00,  6.0000000e+00,  1.5000000e+00</node>
			<node id="5">  1.0000000e+00,  4.0000000e+00, -5.0000000e-01</node>
			<node id="6">  1.0000000e+00,  4.0000000e+00,  1.5000000e+00</node>
			<node id="7">  1.0000000e+00,  6.0000000e+00, -5.0000000e-01</node>
			<node id="8">  1.0000000e+00,  6.0000000e+00,  1.5000000e+00</node>
		</Nodes>
		<Elements type="hex8" mat="1" name="Part1">
			<elem id="1">     1,     5,     7,     3,     2,     6,     8,     4</elem>
		</Elements>
		<NodeSet name="FixedNodes">
			<node id="1"/>
			<node id="2"/>
			<node id="5"/>
			<node id="6"/>
		</NodeSet>
		<NodeSet name="LoadedNodes">
			<node id="3"/>
			<node id="4"/>
			<node id="7"/>
			<node id="8"/>
		</NodeSet>
	</Geometry>
	<Boundary>
		<fix bc="x,y,z" node_set="FixedNodes"/>
	</Boundary>
	<LoadData>
		<loadcurve id="1" type="smooth">
			<point>0,0</point>
			<point>1,1</point>
		</loadcurve>
	</LoadData>
	<Output>
		<plotfile type="febio">
			<var type="displacement"/>
			<var type="reaction forces"/>
			<var type="stress"/>
		</plotfile>
		<logfile>
			<node_data file="NodePositions.txt" data="x;y;z" format='node id="%i">%g,%g,%g/node>'></node_data>
		</logfile>
	</Output>
	<Step name="Load">
		<Control>
			<time_steps>10</time_steps>
			<step_size>0.1</step_size>
			<max_refs>15</max_refs>
			<max_ups>10</max_ups>
			<diverge_reform>1</diverge_reform>
			<reform_each_time_step>1</reform_each_time_step>
			<dtol>0.001</dtol>
			<etol>0.01</etol>
			<rtol>0</rtol>
			<lstol>0.9</lstol>
			<min_residual>1e-20</min_residual>
			<qnmethod>0</qnmethod>
			<time_stepper>
				<dtmin>0.01</dtmin>
				<dtmax>0.1</dtmax>
				<max_retries>5</max_retries>
				<opt_iter>10</opt_iter>
			</time_stepper>
			<analysis type="static"/>
		</Control>
		<Loads>
			<nodal_load bc="y" node_set="LoadedNodes">
				<scale lc="1">100.</scale>
			</nodal_load>
		</Loads>
	</Step>
</febio_spec>